
     RDKit          3D

 55 58  0  0  0  0  0  0  0  0999 V2000
   -4.7266   -3.3285    0.7320 C   0  0  0  0  0  0  0  0  0  0  0  0
   -3.8533   -2.7354   -0.2794 N   0  0  0  0  0  0  0  0  0  0  0  0
   -2.5767   -3.4825   -0.3328 C   0  0  0  0  0  0  0  0  0  0  0  0
   -1.3746   -2.6653   -0.8322 C   0  0  0  0  0  0  0  0  0  0  0  0
   -1.1541   -1.4848    0.0072 N   0  0  0  0  0  0  0  0  0  0  0  0
   -2.3533   -0.8827    0.6033 C   0  0  0  0  0  0  0  0  0  0  0  0
   -3.6521   -1.2579   -0.1633 C   0  0  0  0  0  0  0  0  0  0  0  0
   -4.8776   -0.4759    0.3794 C   0  0  0  0  0  0  0  0  0  0  0  0
   -4.7901    1.0227    0.1938 C   0  0  0  0  0  0  0  0  0  0  0  0
   -4.5734    1.8666    1.2916 C   0  0  0  0  0  0  0  0  0  0  0  0
   -4.4837    3.2482    1.1144 C   0  0  0  0  0  0  0  0  0  0  0  0
   -4.6131    3.7994   -0.1588 C   0  0  0  0  0  0  0  0  0  0  0  0
   -4.8338    2.9702   -1.2565 C   0  0  0  0  0  0  0  0  0  0  0  0
   -4.9230    1.5886   -1.0820 C   0  0  0  0  0  0  0  0  0  0  0  0
    0.0788   -0.9029    0.2472 C   0  0  0  0  0  0  0  0  0  0  0  0
    0.2203    0.0568    1.0129 O   0  0  0  0  0  0  0  0  0  0  0  0
    1.2931   -1.5064   -0.4633 C   0  0  0  0  0  0  0  0  0  0  0  0
    2.4422   -0.6479   -0.2511 N   0  0  0  0  0  0  0  0  0  0  0  0
    3.6729   -0.9789   -0.7615 C   0  0  0  0  0  0  0  0  0  0  0  0
    3.8303   -1.9771   -1.4587 O   0  0  0  0  0  0  0  0  0  0  0  0
    4.7492   -0.0831   -0.3989 C   0  0  0  0  0  0  0  0  0  0  0  0
    6.1106   -0.2978   -0.5439 C   0  0  0  0  0  0  0  0  0  0  0  0
    6.8067    0.8436   -0.0654 C   0  0  0  0  0  0  0  0  0  0  0  0
    8.1668    1.1885    0.0465 C   0  0  0  0  0  0  0  0  0  0  0  0
    8.5144    2.4370    0.5756 C   0  0  0  0  0  0  0  0  0  0  0  0
    7.5300    3.3336    0.9866 C   0  0  0  0  0  0  0  0  0  0  0  0
    6.1730    3.0124    0.8827 C   0  0  0  0  0  0  0  0  0  0  0  0
    5.8447    1.7586    0.3541 C   0  0  0  0  0  0  0  0  0  0  0  0
    4.6156    1.1819    0.1312 N   0  0  0  0  0  0  0  0  0  0  0  0
   -5.7512   -2.9538    0.6464 H   0  0  0  0  0  0  0  0  0  0  0  0
   -4.7968   -4.4136    0.5905 H   0  0  0  0  0  0  0  0  0  0  0  0
   -4.3643   -3.1401    1.7487 H   0  0  0  0  0  0  0  0  0  0  0  0
   -2.3175   -3.8559    0.6680 H   0  0  0  0  0  0  0  0  0  0  0  0
   -2.7109   -4.3581   -0.9783 H   0  0  0  0  0  0  0  0  0  0  0  0
   -0.4829   -3.2982   -0.8386 H   0  0  0  0  0  0  0  0  0  0  0  0
   -1.5411   -2.3145   -1.8574 H   0  0  0  0  0  0  0  0  0  0  0  0
   -2.2121    0.2026    0.6274 H   0  0  0  0  0  0  0  0  0  0  0  0
   -2.4077   -1.2305    1.6423 H   0  0  0  0  0  0  0  0  0  0  0  0
   -3.5024   -0.9235   -1.2001 H   0  0  0  0  0  0  0  0  0  0  0  0
   -5.7884   -0.8068   -0.1376 H   0  0  0  0  0  0  0  0  0  0  0  0
   -5.0288   -0.7019    1.4428 H   0  0  0  0  0  0  0  0  0  0  0  0
   -4.4682    1.4560    2.2932 H   0  0  0  0  0  0  0  0  0  0  0  0
   -4.3118    3.8951    1.9708 H   0  0  0  0  0  0  0  0  0  0  0  0
   -4.5429    4.8753   -0.2952 H   0  0  0  0  0  0  0  0  0  0  0  0
   -4.9376    3.3999   -2.2494 H   0  0  0  0  0  0  0  0  0  0  0  0
   -5.1002    0.9556   -1.9490 H   0  0  0  0  0  0  0  0  0  0  0  0
    1.1134   -1.5836   -1.5396 H   0  0  0  0  0  0  0  0  0  0  0  0
    1.5161   -2.4906   -0.0404 H   0  0  0  0  0  0  0  0  0  0  0  0
    2.3506    0.0229    0.5012 H   0  0  0  0  0  0  0  0  0  0  0  0
    6.5531   -1.1984   -0.9520 H   0  0  0  0  0  0  0  0  0  0  0  0
    8.9388    0.4955   -0.2742 H   0  0  0  0  0  0  0  0  0  0  0  0
    9.5635    2.7080    0.6642 H   0  0  0  0  0  0  0  0  0  0  0  0
    7.8209    4.2994    1.3937 H   0  0  0  0  0  0  0  0  0  0  0  0
    5.4095    3.7140    1.2021 H   0  0  0  0  0  0  0  0  0  0  0  0
    3.7359    1.6444    0.3094 H   0  0  0  0  0  0  0  0  0  0  0  0
  1  2  1  0
  2  3  1  0
  3  4  1  0
  4  5  1  0
  5  6  1  0
  6  7  1  0
  7  8  1  0
  8  9  1  0
  9 10  2  0
 10 11  1  0
 11 12  2  0
 12 13  1  0
 13 14  2  0
  5 15  1  0
 15 16  2  0
 15 17  1  0
 17 18  1  0
 18 19  1  0
 19 20  2  0
 19 21  1  0
 21 22  2  0
 22 23  1  0
 23 24  2  0
 24 25  1  0
 25 26  2  0
 26 27  1  0
 27 28  2  0
 28 29  1  0
  7  2  1  0
 14  9  1  0
 29 21  1  0
 28 23  1  0
  1 30  1  0
  1 31  1  0
  1 32  1  0
  3 33  1  0
  3 34  1  0
  4 35  1  0
  4 36  1  0
  6 37  1  0
  6 38  1  0
  7 39  1  0
  8 40  1  0
  8 41  1  0
 10 42  1  0
 11 43  1  0
 12 44  1  0
 13 45  1  0
 14 46  1  0
 17 47  1  0
 17 48  1  0
 18 49  1  0
 22 50  1  0
 24 51  1  0
 25 52  1  0
 26 53  1  0
 27 54  1  0
 29 55  1  0
M  END
