
     RDKit          3D

 38 41  0  0  0  0  0  0  0  0999 V2000
    2.5971    1.5900   -0.6522 C   0  0  0  0  0  0  0  0  0  0  0  0
    1.4468    1.5561   -1.6609 C   0  0  0  0  0  0  0  0  0  0  0  0
    1.8196    0.7446   -2.9066 C   0  0  0  0  0  0  0  0  0  0  0  0
    1.3216    0.9532   -4.0127 O   0  0  0  0  0  0  0  0  0  0  0  0
    2.6079   -0.3616   -2.7097 N   0  0  0  0  0  0  0  0  0  0  0  0
    3.2164   -0.6894   -1.4955 C   0  0  0  0  0  0  0  0  0  0  0  0
    3.8567   -1.9203   -1.3577 C   0  0  0  0  0  0  0  0  0  0  0  0
    4.4624   -2.2519   -0.1453 C   0  0  0  0  0  0  0  0  0  0  0  0
    4.4381   -1.3498    0.9183 C   0  0  0  0  0  0  0  0  0  0  0  0
    3.8137   -0.1104    0.7716 C   0  0  0  0  0  0  0  0  0  0  0  0
    3.1931    0.2242   -0.4370 C   0  0  0  0  0  0  0  0  0  0  0  0
    0.2238    0.9865   -1.0976 N   0  0  0  0  0  0  0  0  0  0  0  0
   -0.5855    1.7036   -0.2548 C   0  0  0  0  0  0  0  0  0  0  0  0
   -0.3448    2.8675    0.0526 O   0  0  0  0  0  0  0  0  0  0  0  0
   -1.7309    0.9916    0.2636 C   0  0  0  0  0  0  0  0  0  0  0  0
   -2.2065   -0.2941    0.0650 C   0  0  0  0  0  0  0  0  0  0  0  0
   -3.3879   -0.4626    0.8414 C   0  0  0  0  0  0  0  0  0  0  0  0
   -4.2861   -1.5287    1.0399 C   0  0  0  0  0  0  0  0  0  0  0  0
   -5.3791   -1.3517    1.8964 C   0  0  0  0  0  0  0  0  0  0  0  0
   -5.5823   -0.1367    2.5478 C   0  0  0  0  0  0  0  0  0  0  0  0
   -4.7036    0.9353    2.3647 C   0  0  0  0  0  0  0  0  0  0  0  0
   -3.6166    0.7397    1.5053 C   0  0  0  0  0  0  0  0  0  0  0  0
   -2.6089    1.5974    1.1376 N   0  0  0  0  0  0  0  0  0  0  0  0
    2.2574    2.0079    0.3026 H   0  0  0  0  0  0  0  0  0  0  0  0
    3.3955    2.2406   -1.0317 H   0  0  0  0  0  0  0  0  0  0  0  0
    1.2296    2.5838   -1.9767 H   0  0  0  0  0  0  0  0  0  0  0  0
    2.7294   -0.9614   -3.5160 H   0  0  0  0  0  0  0  0  0  0  0  0
    3.8853   -2.6318   -2.1780 H   0  0  0  0  0  0  0  0  0  0  0  0
    4.9572   -3.2131   -0.0294 H   0  0  0  0  0  0  0  0  0  0  0  0
    4.9164   -1.6077    1.8603 H   0  0  0  0  0  0  0  0  0  0  0  0
    3.8218    0.5936    1.6010 H   0  0  0  0  0  0  0  0  0  0  0  0
    0.0321    0.0089   -1.2616 H   0  0  0  0  0  0  0  0  0  0  0  0
   -1.7664   -1.0504   -0.5701 H   0  0  0  0  0  0  0  0  0  0  0  0
   -4.1362   -2.4784    0.5355 H   0  0  0  0  0  0  0  0  0  0  0  0
   -6.0761   -2.1713    2.0530 H   0  0  0  0  0  0  0  0  0  0  0  0
   -6.4381   -0.0186    3.2087 H   0  0  0  0  0  0  0  0  0  0  0  0
   -4.8648    1.8810    2.8719 H   0  0  0  0  0  0  0  0  0  0  0  0
   -2.5080    2.5523    1.4562 H   0  0  0  0  0  0  0  0  0  0  0  0
  1  2  1  0
  2  3  1  0
  3  4  2  0
  3  5  1  0
  5  6  1  0
  6  7  2  0
  7  8  1  0
  8  9  2  0
  9 10  1  0
 10 11  2  0
  2 12  1  0
 12 13  1  0
 13 14  2  0
 13 15  1  0
 15 16  2  0
 16 17  1  0
 17 18  2  0
 18 19  1  0
 19 20  2  0
 20 21  1  0
 21 22  2  0
 22 23  1  0
 11  1  1  0
 11  6  1  0
 23 15  1  0
 22 17  1  0
  1 24  1  0
  1 25  1  0
  2 26  1  0
  5 27  1  0
  7 28  1  0
  8 29  1  0
  9 30  1  0
 10 31  1  0
 12 32  1  0
 16 33  1  0
 18 34  1  0
 19 35  1  0
 20 36  1  0
 21 37  1  0
 23 38  1  0
M  END
